43
generated via python
O  	 -0.69230 	 -0.15490 	  0.40680
O  	  2.15000 	  2.75990 	  0.32220
O  	  0.39830 	  1.79460 	 -0.83390
O  	 -1.45540 	 -2.31040 	  0.14070
N  	  3.19980 	 -0.34560 	 -0.81030
C  	  3.09080 	  0.12400 	  0.58700
C  	  2.57930 	 -1.68110 	 -0.75680
C  	  1.61550 	  0.53310 	  0.82540
C  	  3.47450 	 -1.10440 	  1.42230
C  	  3.12640 	 -2.30200 	  0.53330
C  	  1.05630 	 -1.44970 	 -0.68820
C  	  0.64220 	 -0.62780 	  0.54290
C  	  4.57760 	 -0.37740 	 -1.29420
C  	  1.29510 	  1.74880 	 -0.00270
C  	 -1.64630 	 -1.10610 	  0.20950
C  	  1.95650 	  3.98310 	 -0.39510
C  	 -2.98920 	 -0.48580 	  0.08230
C  	 -3.93960 	 -1.10790 	 -0.70130
C  	 -3.24550 	  0.69320 	  0.75190
C  	 -5.20130 	 -0.52550 	 -0.82070
C  	 -4.50740 	  1.27560 	  0.63260
C  	 -5.48530 	  0.66620 	 -0.15380
H  	  3.76270 	  0.96390 	  0.79730
H  	  2.80850 	 -2.29150 	 -1.63770
H  	  1.47060 	  0.83890 	  1.87090
H  	  2.95200 	 -1.14420 	  2.38370
H  	  4.55050 	 -1.10780 	  1.63400
H  	  4.03530 	 -2.88030 	  0.32900
H  	  2.41090 	 -2.97500 	  1.01670
H  	  0.71300 	 -0.95250 	 -1.60540
H  	  0.59240 	 -2.43990 	 -0.69270
H  	  0.66160 	 -1.28610 	  1.42250
H  	  4.60330 	 -0.73860 	 -2.32810
H  	  5.24380 	 -1.00980 	 -0.69870
H  	  4.99380 	  0.63600 	 -1.30590
H  	  0.95630 	  4.38200 	 -0.20100
H  	  2.10730 	  3.82090 	 -1.46670
H  	  2.69720 	  4.70530 	 -0.04170
H  	 -3.72930 	 -2.03400 	 -1.22800
H  	 -2.50600 	  1.18050 	  1.38030
H  	 -5.96260 	 -0.99940 	 -1.43350
H  	 -4.72990 	  2.20200 	  1.15400
H  	 -6.46790 	  1.11950 	 -0.24630
